<?xml version="1.0" encoding="UTF-8"?>
<net version="1.9" junctionCornerDetail="5" limitTurnSpeed="5.50">
    <location netOffset="0.00,0.00" convBoundary="-200.00,-200.00,200.00,200.00"
              origBoundary="-200,-200,200,200" projParameter="!"/>
    <!-- Roundabout: 4 entry/exit points, yield-controlled -->
    <junction id="center" type="traffic_light" x="0.00" y="0.00"
              incLanes="north_entry_0 east_entry_0 south_entry_0 west_entry_0"
              intLanes=":center_0_0 :center_1_0 :center_2_0 :center_3_0"
              shape="-20,-20 20,-20 20,20 -20,20"/>
    <tlLogic id="center" type="static" programID="0" offset="0">
        <phase duration="15" state="GGrrGGrr"/>
        <phase duration="4"  state="yyrryyrrr"/>
        <phase duration="15" state="rrGGrrGG"/>
        <phase duration="4"  state="rryyrryy"/>
    </tlLogic>
</net>
