<?xml version="1.0" encoding="UTF-8"?>
<net version="1.9" junctionCornerDetail="5" limitTurnSpeed="5.50">
    <location netOffset="0.00,0.00" convBoundary="-200.00,-200.00,200.00,200.00"
              origBoundary="-200,-200,200,200" projParameter="!"/>
    <!-- Y-junction: three arms at 120-degree angles -->
    <junction id="center" type="traffic_light" x="0.00" y="0.00"
              incLanes="north_0 south_east_0 south_west_0"
              intLanes=":center_0_0" shape="-5,-5 5,-5 0,5"/>
    <tlLogic id="center" type="static" programID="0" offset="0">
        <phase duration="30" state="GGrr"/>
        <phase duration="4"  state="yyrr"/>
        <phase duration="30" state="rrGG"/>
        <phase duration="4"  state="rryy"/>
    </tlLogic>
</net>
